data_silicate

_audit_creation_method             'generated by GULP'

_symmetry_space_group_name_H-M     'P 1'
_symmetry_Int_Tables_number        1
_symmetry_cell_setting             triclinic

_cell_length_a                        7.4819
_cell_length_b                        7.4512
_cell_length_c                        8.4187
_cell_angle_alpha                   90.0062
_cell_angle_beta                    89.9957
_cell_angle_gamma                   90.0061

loop_
_atom_site_label
_atom_site_fract_x
_atom_site_fract_y
_atom_site_fract_z
_atom_site_occupancy
  Si          0.32486      0.11913      0.25081  1.0000
  Si          0.38124      0.82245      0.99948  1.0000
  Si          0.67744      0.88264      0.75133  1.0000
  Si          0.62104      0.17897      0.49941  1.0000
  Si          0.12121      0.32242      0.74320  1.0000
  Si          0.82496      0.38264      0.99164  1.0000
  Si          0.88142      0.67912      0.24346  1.0000
  Si          0.17764      0.61882      0.49156  1.0000
  Si          0.41696      0.41148      0.99592  1.0000
  Si          0.08564      0.91137      0.74644  1.0000
  Si          0.58578      0.59000      0.49664  1.0000
  Si          0.91676      0.09016      0.24652  1.0000
  O           0.44145      0.12166      0.40928  1.0000
  O           0.37056      0.93706      0.15876  1.0000
  O           0.56097      0.88055      0.90986  1.0000
  O           0.63121      0.06410      0.65857  1.0000
  O           0.13138      0.43707      0.58393  1.0000
  O           0.94186      0.38032      0.83340  1.0000
  O           0.87064      0.56432      0.08432  1.0000
  O           0.06124      0.62129      0.33302  1.0000
  O           0.11905      0.12405      0.30053  1.0000
  O           0.38551      0.61557      0.04754  1.0000
  O           0.88333      0.87812      0.80074  1.0000
  O           0.61719      0.38582      0.54777  1.0000
  O           0.11688      0.11553      0.69510  1.0000
  O           0.61925      0.37823      0.94167  1.0000
  O           0.88576      0.88594      0.19515  1.0000
  O           0.38354      0.62322      0.44220  1.0000
  O           0.37060      0.29390      0.14853  1.0000
  O           0.20687      0.85923      0.89481  1.0000
  O           0.63164      0.70730      0.64962  1.0000
  O           0.79565      0.14207      0.39504  1.0000
  O           0.29589      0.35923      0.84747  1.0000
  O           0.87006      0.20754      0.09384  1.0000
  O           0.70722      0.64269      0.34852  1.0000
  O           0.13196      0.79385      0.59373  1.0000

